networks/opendss/CKT_2956_10705.dss
! OpenDSS script generated from multiconductor network
Clear

New Circuit.mc_network basekv=12.0 pu=1.000000 angle=0.00 frequency=60.0 phases=3 Mvasc3=143993 Mvasc1=47997.6
~ bus1=-8888882181375.1.2.3

! Line codes
New LineCode.750_CLP_3PH_12KV_3 nphases=3 units=km Rmatrix=[ 0.016662 | 0 0.016662 | 0 0 0.016662 ] Xmatrix=[ 0.020463 | 0 0.020463 | 0 0 0.020463 ] Cmatrix=[ 0 | 0 0 | 0 0 0 ]
New LineCode.1/0_JCN_1PH_12KV_1 nphases=1 units=km Rmatrix=[ 0.002 ] Xmatrix=[ 0.000611 ] Cmatrix=[ 0 ]
New LineCode.2_CIC_1PH_12KV_1 nphases=1 units=km Rmatrix=[ 0.092017 ] Xmatrix=[ 0.019395 ] Cmatrix=[ 0 ]
New LineCode.1/0_CLP_3PH_12KV_3 nphases=3 units=km Rmatrix=[ 0.150891 | 0 0.150891 | 0 0 0.150891 ] Xmatrix=[ 0.046119 | 0 0.046119 | 0 0 0.046119 ] Cmatrix=[ 0 | 0 0 | 0 0 0 ]
New LineCode.1/0_JCN_3PH_12KV_3 nphases=3 units=km Rmatrix=[ 0.001744 | 0 0.001744 | 0 0 0.001744 ] Xmatrix=[ 0.000533 | 0 0.000533 | 0 0 0.000533 ] Cmatrix=[ 0 | 0 0 | 0 0 0 ]
New LineCode.2_CLP_3PH_12KV_3 nphases=3 units=km Rmatrix=[ 0.003297 | 0 0.003297 | 0 0 0.003297 ] Xmatrix=[ 0.000695 | 0 0.000695 | 0 0 0.000695 ] Cmatrix=[ 0 | 0 0 | 0 0 0 ]
New LineCode.2_AL_3PH_12KV_3 nphases=3 units=km Rmatrix=[ 0.015933 | 0 0.015933 | 0 0 0.015933 ] Xmatrix=[ 0.003358 | 0 0.003358 | 0 0 0.003358 ] Cmatrix=[ 0 | 0 0 | 0 0 0 ]
New LineCode.4_ACSR_2PH_12KV_2 nphases=2 units=km Rmatrix=[ 0.111961 | 0 0.111961 ] Xmatrix=[ 0.041083 | 0 0.041083 ] Cmatrix=[ 0 | 0 0 ]
New LineCode.1/0_CLP_2PH_12KV_2 nphases=2 units=km Rmatrix=[ 0.109228 | 0 0.109228 ] Xmatrix=[ 0.033385 | 0 0.033385 ] Cmatrix=[ 0 | 0 0 ]
New LineCode.1/0_ACSR_3PH_1/0_ACSR_N_12KV_4 nphases=4 units=km Rmatrix=[ 0.007917 | 0 0.007917 | 0 0 0.007917 | 0 0 0 0.007917 ] Xmatrix=[ 0.005721 | 0 0.005721 | 0 0 0.005721 | 0 0 0 0.005721 ] Cmatrix=[ 0 | 0 0 | 0 0 0 | 0 0 0 0 ]
New LineCode.350_CLP_3PH_12KV_3 nphases=3 units=km Rmatrix=[ 0.043877 | 0 0.043877 | 0 0 0.043877 ] Xmatrix=[ 0.033338 | 0 0.033338 | 0 0 0.033338 ] Cmatrix=[ 0 | 0 0 | 0 0 0 ]
New LineCode.2_AL_2PH_12KV_2 nphases=2 units=km Rmatrix=[ 0.175466 | 0 0.175466 ] Xmatrix=[ 0.036985 | 0 0.036985 ] Cmatrix=[ 0 | 0 0 ]
New LineCode.2_CLP_1PH_12KV_1 nphases=1 units=km Rmatrix=[ 0.461843 ] Xmatrix=[ 0.097348 ] Cmatrix=[ 0 ]
New LineCode.2_CLP_2PH_12KV_2 nphases=2 units=km Rmatrix=[ 0.13141 | 0 0.13141 ] Xmatrix=[ 0.027699 | 0 0.027699 ] Cmatrix=[ 0 | 0 0 ]
New LineCode.4/0_ACSR_3PH_4/0_ACSR_N_12KV_4 nphases=4 units=km Rmatrix=[ 0.01267 | 0 0.01267 | 0 0 0.01267 | 0 0 0 0.01267 ] Xmatrix=[ 0.016129 | 0 0.016129 | 0 0 0.016129 | 0 0 0 0.016129 ] Cmatrix=[ 0 | 0 0 | 0 0 0 | 0 0 0 0 ]
New LineCode.350_AL_3PH_12KV_3 nphases=3 units=km Rmatrix=[ 0.0076 | 0 0.0076 | 0 0 0.0076 ] Xmatrix=[ 0.005775 | 0 0.005775 | 0 0 0.005775 ] Cmatrix=[ 0 | 0 0 | 0 0 0 ]
New LineCode.4_ACSR_3PH_12KV_3 nphases=3 units=km Rmatrix=[ 0.107476 | 0 0.107476 | 0 0 0.107476 ] Xmatrix=[ 0.039438 | 0 0.039438 | 0 0 0.039438 ] Cmatrix=[ 0 | 0 0 | 0 0 0 ]
New LineCode.6_CU_2PH_12KV_2 nphases=2 units=km Rmatrix=[ 0.162671 | 0 0.162671 ] Xmatrix=[ 0.05766 | 0 0.05766 ] Cmatrix=[ 0 | 0 0 ]
New LineCode.336_ACSR_3PH_336_ACSR_N_12KV_4 nphases=4 units=km Rmatrix=[ 0.012455 | 0 0.012455 | 0 0 0.012455 | 0 0 0 0.012455 ] Xmatrix=[ 0.024838 | 0 0.024838 | 0 0 0.024838 | 0 0 0 0.024838 ] Cmatrix=[ 0 | 0 0 | 0 0 0 | 0 0 0 0 ]
New LineCode.1/0_ACSR_3PH_12KV_3 nphases=3 units=km Rmatrix=[ 0.001906 | 0 0.001906 | 0 0 0.001906 ] Xmatrix=[ 0.001517 | 0 0.001517 | 0 0 0.001517 ] Cmatrix=[ 0 | 0 0 | 0 0 0 ]
New LineCode.336_ACSR_3PH_12KV_3 nphases=3 units=km Rmatrix=[ 0.056103 | 0 0.056103 | 0 0 0.056103 ] Xmatrix=[ 0.020587 | 0 0.020587 | 0 0 0.020587 ] Cmatrix=[ 0 | 0 0 | 0 0 0 ]
New LineCode.1/0_ACSR_2PH_12KV_2 nphases=2 units=km Rmatrix=[ 0.038706 | 0 0.038706 ] Xmatrix=[ 0.030818 | 0 0.030818 ] Cmatrix=[ 0 | 0 0 ]
New LineCode.4/0_CU_3PH_4/0_CU_N_12KV_4 nphases=4 units=km Rmatrix=[ 0.003481 | 0 0.003481 | 0 0 0.003481 | 0 0 0 0.003481 ] Xmatrix=[ 0.007321 | 0 0.007321 | 0 0 0.007321 | 0 0 0 0.007321 ] Cmatrix=[ 0 | 0 0 | 0 0 0 | 0 0 0 0 ]
New LineCode.4_ACSR_3PH_4_ACSR_N_12KV_4 nphases=4 units=km Rmatrix=[ 0.008585 | 0 0.008585 | 0 0 0.008585 | 0 0 0 0.008585 ] Xmatrix=[ 0.002888 | 0 0.002888 | 0 0 0.002888 | 0 0 0 0.002888 ] Cmatrix=[ 0 | 0 0 | 0 0 0 | 0 0 0 0 ]
New LineCode.1000_CLP_3PH_12KV_3 nphases=3 units=km Rmatrix=[ 0.032096 | 0 0.032096 | 0 0 0.032096 ] Xmatrix=[ 0.048583 | 0 0.048583 | 0 0 0.048583 ] Cmatrix=[ 0 | 0 0 | 0 0 0 ]
New LineCode.6_CU_3PH_12KV_3 nphases=3 units=km Rmatrix=[ 0.005575 | 0 0.005575 | 0 0 0.005575 ] Xmatrix=[ 0.001976 | 0 0.001976 | 0 0 0.001976 ] Cmatrix=[ 0 | 0 0 | 0 0 0 ]
New LineCode.1000_JCN_3PH_12KV_3 nphases=3 units=km Rmatrix=[ 0.006456 | 0 0.006456 | 0 0 0.006456 ] Xmatrix=[ 0.009773 | 0 0.009773 | 0 0 0.009773 ] Cmatrix=[ 0 | 0 0 | 0 0 0 ]
New LineCode.2_CIC_3PH_12KV_3 nphases=3 units=km Rmatrix=[ 0.000603 | 0 0.000603 | 0 0 0.000603 ] Xmatrix=[ 0.000127 | 0 0.000127 | 0 0 0.000127 ] Cmatrix=[ 0 | 0 0 | 0 0 0 ]
New LineCode.2_JCN_3PH_12KV_3 nphases=3 units=km Rmatrix=[ 0.001096 | 0 0.001096 | 0 0 0.001096 ] Xmatrix=[ 0.000231 | 0 0.000231 | 0 0 0.000231 ] Cmatrix=[ 0 | 0 0 | 0 0 0 ]
New LineCode.1/0_CLP_1PH_12KV_1 nphases=1 units=km Rmatrix=[ 0.003148 ] Xmatrix=[ 0.000962 ] Cmatrix=[ 0 ]
New LineCode.__1PH_12KV_1 nphases=1 units=km Rmatrix=[ 1e-05 ] Xmatrix=[ 1e-05 ] Cmatrix=[ 0 ]

! Lines
New Line.J183A-1P$ND83943377 phases=3 Bus1=83943377.1.2.3 Bus2=83942359.1.2.3 LineCode=750_CLP_3PH_12KV_3 Length=0.014619 units=km
New Line.172805018$172805064 phases=1 Bus1=172805020.1 Bus2=172805066.1 LineCode=1/0_JCN_1PH_12KV_1 Length=0.067572 units=km
New Line.B5058161-1$B5058159-1 phases=1 Bus1=61869929.3 Bus2=61869857.3 LineCode=2_CIC_1PH_12KV_1 Length=0.052312 units=km
New Line.B5058155-2$B5058156-1 phases=1 Bus1=61870001.1 Bus2=61870082.1 LineCode=2_CIC_1PH_12KV_1 Length=0.109151 units=km
New Line.70978863$J0328-2P phases=3 Bus1=59224281.1.2.3 Bus2=70978865.1.2.3 LineCode=1/0_CLP_3PH_12KV_3 Length=0.119969 units=km
New Line.P5399610-A$J0328-1P phases=3 Bus1=59224257.1.2.3 Bus2=102518061.1.2.3 LineCode=1/0_JCN_3PH_12KV_3 Length=0.244716 units=km
New Line.P5375767-B$181893067 phases=3 Bus1=102518146.1.2.3 Bus2=181893070.1.2.3 LineCode=2_CLP_3PH_12KV_3 Length=0.075555 units=km
New Line.ND59247407$1086988E phases=3 Bus1=59247407.1.2.3 Bus2=59222987.1.2.3 LineCode=2_AL_3PH_12KV_3 Length=0.129816 units=km
New Line.B5411843-1$B5411844-2 phases=1 Bus1=61868993.2 Bus2=61868930.2 LineCode=2_CIC_1PH_12KV_1 Length=0.16594 units=km
New Line.1496524E$1496522E phases=2 Bus1=61870389.1.3 Bus2=61870339.1.3 LineCode=4_ACSR_2PH_12KV_2 Length=0.0621 units=km
New Line.1086972E$1086974E phases=2 Bus1=59222888.1.3 Bus2=110818653.1.3 LineCode=4_ACSR_2PH_12KV_2 Length=0.037612 units=km
New Line.P5333547-2$70978863 phases=3 Bus1=70978866.1.2.3 Bus2=59224041.1.2.3 LineCode=1/0_CLP_3PH_12KV_3 Length=0.001835 units=km
New Line.B5058155-1$B5058154-2 phases=1 Bus1=61870073.1 Bus2=61869722.1 LineCode=2_CIC_1PH_12KV_1 Length=0.050911 units=km
New Line.B5058159-2$B5058158-1 phases=1 Bus1=61869866.3 Bus2=61869785.3 LineCode=2_CIC_1PH_12KV_1 Length=0.071015 units=km
New Line.181893067$70978755 phases=3 Bus1=181893069.1.2.3 Bus2=70978757.1.2.3 LineCode=2_CLP_3PH_12KV_3 Length=0.048894 units=km
New Line.172805193$172805220 phases=1 Bus1=172805195.1 Bus2=172805222.1 LineCode=1/0_JCN_1PH_12KV_1 Length=0.073931 units=km
New Line.P5399611-A$P5399610-B phases=3 Bus1=102518044.1.2.3 Bus2=102517951.1.2.3 LineCode=1/0_JCN_3PH_12KV_3 Length=0.077612 units=km
New Line.OS2085-3$ND59247967 phases=2 Bus1=59224701.1.2 Bus2=59247967.1.2 LineCode=1/0_CLP_2PH_12KV_2 Length=0.019536 units=km
New Line.P5433858-1$70978755 phases=3 Bus1=70978758.1.2.3 Bus2=102518245.1.2.3 LineCode=2_CLP_3PH_12KV_3 Length=0.002938 units=km
New Line.ND59247967$B5355411-2 phases=2 Bus1=59247967.1.2 Bus2=59224605.1.2 LineCode=1/0_CLP_2PH_12KV_2 Length=0.142113 units=km
New Line.172805064$P5646888-2 phases=1 Bus1=172805067.1 Bus2=172804753.1 LineCode=1/0_JCN_1PH_12KV_1 Length=0.001573 units=km
New Line.ND61886164$PH phases=4 Bus1=61886164.0.1.2.3 Bus2=90594064.0.1.2.3 LineCode=1/0_ACSR_3PH_1/0_ACSR_N_12KV_4 Length=0.032558 units=km
New Line.172805220$P5644378-1 phases=1 Bus1=172805223.1 Bus2=172804949.1 LineCode=1/0_JCN_1PH_12KV_1 Length=0.001473 units=km
New Line.J180A-4P$GS2331-2 phases=3 Bus1=83941614.1.2.3 Bus2=83941916.1.2.3 LineCode=750_CLP_3PH_12KV_3 Length=0.051697 units=km
New Line.4427498EPH$GS2331-3 phases=3 Bus1=83941630.1.2.3 Bus2=83941885.1.2.3 LineCode=350_CLP_3PH_12KV_3 Length=0.062449 units=km
New Line.ND59247967$ND59248009 phases=2 Bus1=59247967.1.2 Bus2=59248009.1.2 LineCode=2_AL_2PH_12KV_2 Length=0.021259 units=km
New Line.ND59248009$1075280E phases=2 Bus1=59248009.1.2 Bus2=59222863.1.2 LineCode=2_AL_2PH_12KV_2 Length=0.082016 units=km
New Line.ND59248009$ND59248386 phases=2 Bus1=59248009.1.2 Bus2=59248386.1.2 LineCode=2_AL_2PH_12KV_2 Length=0.084828 units=km
New Line.B5058158-2$B5058157-1 phases=1 Bus1=61869794.3 Bus2=61869641.3 LineCode=2_CIC_1PH_12KV_1 Length=0.068435 units=km
New Line.P5399611-B$223867731 phases=3 Bus1=102517934.1.2.3 Bus2=223867733.1.2.3 LineCode=1/0_JCN_3PH_12KV_3 Length=0.175836 units=km
New Line.ND59248386$1075251E phases=2 Bus1=59248386.1.2 Bus2=59222876.1.2 LineCode=2_AL_2PH_12KV_2 Length=0.087018 units=km
New Line.ND59248386$1075369E phases=2 Bus1=59248386.1.2 Bus2=59222915.1.2 LineCode=2_AL_2PH_12KV_2 Length=0.163934 units=km
New Line.223867731$P5399612-A phases=3 Bus1=223867734.1.2.3 Bus2=209924939.1.2.3 LineCode=1/0_JCN_3PH_12KV_3 Length=0.002514 units=km
New Line.V5505399$J183A-3P phases=3 Bus1=83942367.1.2.3 Bus2=83942701.1.2.3 LineCode=2_CLP_3PH_12KV_3 Length=0.074183 units=km
New Line.FC4768-1$PH phases=1 Bus1=90594065.3 Bus2=90594023.3 LineCode=2_CLP_1PH_12KV_1 Length=0.033686 units=km
New Line.P5646888-1$172805098 phases=1 Bus1=172804744.1 Bus2=172805101.1 LineCode=1/0_JCN_1PH_12KV_1 Length=0.001708 units=km
New Line.GS2331-4$ND83941807 phases=3 Bus1=83941638.1.2.3 Bus2=83941807.1.2.3 LineCode=750_CLP_3PH_12KV_3 Length=0.046132 units=km
New Line.ND83941807$J198A-3P phases=3 Bus1=83941807.1.2.3 Bus2=83941366.1.2.3 LineCode=750_CLP_3PH_12KV_3 Length=0.03034 units=km
New Line.GS2330-1$ND83941807 phases=3 Bus1=83941807.1.2.3 Bus2=83943044.1.2.3 LineCode=750_CLP_3PH_12KV_3 Length=0.209115 units=km
New Line.FC4768-1$90594493 phases=1 Bus1=90594024.3 Bus2=90594495.3 LineCode=2_CLP_1PH_12KV_1 Length=0.058074 units=km
New Line.172805098$172805125 phases=1 Bus1=172805100.1 Bus2=172805127.1 LineCode=1/0_JCN_1PH_12KV_1 Length=0.074346 units=km
New Line.P5399612-B$223867699 phases=3 Bus1=209924957.1.2.3 Bus2=223867702.1.2.3 LineCode=1/0_JCN_3PH_12KV_3 Length=0.002465 units=km
New Line.90594493$ND90594420 phases=1 Bus1=90594496.3 Bus2=90594420.3 LineCode=2_CLP_1PH_12KV_1 Length=0.006923 units=km
New Line.172805125$P5646889-2 phases=1 Bus1=172805128.1 Bus2=172804821.1 LineCode=1/0_JCN_1PH_12KV_1 Length=0.003276 units=km
New Line.J199A-3P$J180A-1P phases=2 Bus1=83941900.1.2 Bus2=83941462.1.2 LineCode=2_CLP_2PH_12KV_2 Length=0.250196 units=km
New Line.ND90594420$90594518 phases=1 Bus1=90594420.3 Bus2=90594521.3 LineCode=2_CLP_1PH_12KV_1 Length=0.006433 units=km
New Line.ND90594420$90594543 phases=1 Bus1=90594420.3 Bus2=90594546.3 LineCode=2_CLP_1PH_12KV_1 Length=0.015815 units=km
New Line.GS2330-2$ND61886396 phases=3 Bus1=83943052.1.2.3 Bus2=61886396.1.2.3 LineCode=1/0_CLP_3PH_12KV_3 Length=0.21404 units=km
New Line.223867699$P5740670-1 phases=3 Bus1=223867701.1.2.3 Bus2=102517838.1.2.3 LineCode=1/0_JCN_3PH_12KV_3 Length=0.010826 units=km
New Line.ND61886396$BS2128-T phases=3 Bus1=61886396.1.2.3 Bus2=61870864.1.2.3 LineCode=1/0_CLP_3PH_12KV_3 Length=0.123775 units=km
New Line.ND61886396$P5375800-1 phases=3 Bus1=61886396.1.2.3 Bus2=61871483.1.2.3 LineCode=1/0_CLP_3PH_12KV_3 Length=0.00984 units=km
New Line.90594543$90594466 phases=1 Bus1=90594545.3 Bus2=90594468.3 LineCode=2_CLP_1PH_12KV_1 Length=0.095556 units=km
New Line.90594518$90594567 phases=1 Bus1=90594520.3 Bus2=90594569.3 LineCode=2_CLP_1PH_12KV_1 Length=0.04051 units=km
New Line.BF10013$J199A-2P phases=2 Bus1=83941470.1.2 Bus2=83942084.1.2 LineCode=2_CLP_2PH_12KV_2 Length=0.117486 units=km
New Line.90594466$P5562816-2 phases=1 Bus1=90594469.3 Bus2=90594109.3 LineCode=2_CLP_1PH_12KV_1 Length=0.001163 units=km
New Line.90594567$P5562819-2 phases=1 Bus1=90594570.3 Bus2=90594177.3 LineCode=2_CLP_1PH_12KV_1 Length=0.000477 units=km
New Line.BS2128-R$181893038 phases=3 Bus1=61870856.1.2.3 Bus2=181893040.1.2.3 LineCode=2_CLP_3PH_12KV_3 Length=0.076753 units=km
New Line.BS2128-L$V5058333 phases=3 Bus1=61870873.1.2.3 Bus2=61871462.1.2.3 LineCode=2_CLP_3PH_12KV_3 Length=0.150511 units=km
New Line.181893038$P5399609-1 phases=3 Bus1=181893041.1.2.3 Bus2=61871414.1.2.3 LineCode=2_CLP_3PH_12KV_3 Length=0.002261 units=km
New Line.P5562819-1$90594592 phases=1 Bus1=90594168.3 Bus2=90594595.3 LineCode=2_CLP_1PH_12KV_1 Length=0.000574 units=km
New Line.90594592$ND90594450 phases=1 Bus1=90594594.3 Bus2=90594450.3 LineCode=2_CLP_1PH_12KV_1 Length=0.122131 units=km
New Line.ND90594450$P5562818-1 phases=1 Bus1=90594450.3 Bus2=90594236.3 LineCode=2_CLP_1PH_12KV_1 Length=0.03065 units=km
New Line.ND90594450$P5562817-2 phases=1 Bus1=90594450.3 Bus2=90594313.3 LineCode=2_CLP_1PH_12KV_1 Length=0.087378 units=km
New Line.ND59270881$ND200471304 phases=4 Bus1=59270881.0.1.2.3 Bus2=200471304.0.1.2.3 LineCode=4/0_ACSR_3PH_4/0_ACSR_N_12KV_4 Length=0.062236 units=km
New Line.ND200471304$4433800E phases=4 Bus1=200471304.0.1.2.3 Bus2=59226150.0.1.2.3 LineCode=4/0_ACSR_3PH_4/0_ACSR_N_12KV_4 Length=0.037507 units=km
New Line.4102413E$4433800E phases=4 Bus1=59226150.0.1.2.3 Bus2=200769907.0.1.2.3 LineCode=4/0_ACSR_3PH_4/0_ACSR_N_12KV_4 Length=0.057715 units=km
New Line.1075268E$PME2183-2 phases=3 Bus1=61870661.1.2.3 Bus2=61870730.1.2.3 LineCode=1/0_CLP_3PH_12KV_3 Length=0.207881 units=km
New Line.1075335E$4102413E phases=4 Bus1=200769907.0.1.2.3 Bus2=59194346.0.1.2.3 LineCode=4/0_ACSR_3PH_4/0_ACSR_N_12KV_4 Length=0.041401 units=km
New Line.FD00031$240841368 phases=3 Bus1=61870648.1.2.3 Bus2=240841370.1.2.3 LineCode=350_AL_3PH_12KV_3 Length=0.034242 units=km
New Line.1086988E$1086989E phases=3 Bus1=59222986.1.2.3 Bus2=59222976.1.2.3 LineCode=4_ACSR_3PH_12KV_3 Length=0.03636 units=km
New Line.1086974E$1086975E phases=2 Bus1=110818653.1.3 Bus2=59223055.1.3 LineCode=4_ACSR_2PH_12KV_2 Length=0.045525 units=km
New Line.1497686E$1497689E phases=2 Bus1=61870464.1.3 Bus2=61870514.1.3 LineCode=4_ACSR_2PH_12KV_2 Length=0.09984 units=km
New Line.ND61886775$1228163E phases=2 Bus1=61886775.1.3 Bus2=61870589.1.3 LineCode=6_CU_2PH_12KV_2 Length=0.035678 units=km
New Line.ND61886775$ND61885180 phases=4 Bus1=61886775.0.1.2.3 Bus2=61885180.0.1.2.3 LineCode=336_ACSR_3PH_336_ACSR_N_12KV_4 Length=0.056101 units=km
New Line.1497689E$1497692E phases=2 Bus1=61870514.1.3 Bus2=61870489.1.3 LineCode=4_ACSR_2PH_12KV_2 Length=0.102421 units=km
New Line.1086989E$BF05846 phases=3 Bus1=59222976.1.2.3 Bus2=159075703.1.2.3 LineCode=4_ACSR_3PH_12KV_3 Length=0.017578 units=km
New Line.1086975E$1086976E phases=2 Bus1=59223055.1.3 Bus2=59223080.1.3 LineCode=4_ACSR_2PH_12KV_2 Length=0.048547 units=km
New Line.ND61885180$ND61886164 phases=4 Bus1=61885180.0.1.2.3 Bus2=61886164.0.1.2.3 LineCode=336_ACSR_3PH_336_ACSR_N_12KV_4 Length=0.032558 units=km
New Line.ND61886164$ND127948349 phases=3 Bus1=61886164.1.2.3 Bus2=127948349.1.2.3 LineCode=1/0_ACSR_3PH_12KV_3 Length=0.032558 units=km
New Line.ND61886164$PS6370 phases=4 Bus1=61886164.0.1.2.3 Bus2=61871574.0.1.2.3 LineCode=336_ACSR_3PH_336_ACSR_N_12KV_4 Length=0.036759 units=km
New Line.ND127948349$4772155E phases=3 Bus1=127948349.1.2.3 Bus2=245342010.1.2.3 LineCode=1/0_ACSR_3PH_12KV_3 Length=0.088642 units=km
New Line.ND127948349$1228161E phases=2 Bus1=127948349.1.3 Bus2=61868380.1.3 LineCode=4_ACSR_2PH_12KV_2 Length=0.086776 units=km
New Line.4772155E$1154353E phases=3 Bus1=245342010.1.2.3 Bus2=61868355.1.2.3 LineCode=1/0_ACSR_3PH_12KV_3 Length=0.034502 units=km
New Line.BF05846$ND59248106 phases=3 Bus1=159075704.1.2.3 Bus2=59248106.1.2.3 LineCode=4_ACSR_3PH_12KV_3 Length=0.031138 units=km
New Line.ND59248106$1086993E phases=3 Bus1=59248106.1.2.3 Bus2=59223782.1.2.3 LineCode=4_ACSR_3PH_12KV_3 Length=0.03412 units=km
New Line.ND59248106$BF10347 phases=2 Bus1=59248106.2.3 Bus2=59246926.2.3 LineCode=4_ACSR_2PH_12KV_2 Length=0.056258 units=km
New Line.1075280E$1075279E phases=2 Bus1=59222862.1.2 Bus2=59224584.1.2 LineCode=4_ACSR_2PH_12KV_2 Length=0.036313 units=km
New Line.1086993E$ND59248090 phases=3 Bus1=59223782.1.2.3 Bus2=59248090.1.2.3 LineCode=4_ACSR_3PH_12KV_3 Length=0.036612 units=km
New Line.ND59248090$1086995E phases=3 Bus1=59248090.1.2.3 Bus2=59223330.1.2.3 LineCode=4_ACSR_3PH_12KV_3 Length=0.052383 units=km
New Line.BF10347$2356294E phases=2 Bus1=59246927.2.3 Bus2=59223755.2.3 LineCode=4_ACSR_2PH_12KV_2 Length=0.088427 units=km
New Line.1075369E$1075370E phases=2 Bus1=59222914.1.2 Bus2=59224534.1.2 LineCode=4_ACSR_2PH_12KV_2 Length=0.03631 units=km
New Line.1075251E$1075252E phases=2 Bus1=59222875.1.2 Bus2=59224559.1.2 LineCode=4_ACSR_2PH_12KV_2 Length=0.057347 units=km
New Line.1154353E$1154355E phases=3 Bus1=61868355.1.2.3 Bus2=61868280.1.2.3 LineCode=1/0_ACSR_3PH_12KV_3 Length=0.082339 units=km
New Line.1154355E$ND61885936 phases=3 Bus1=61868280.1.2.3 Bus2=61885936.1.2.3 LineCode=1/0_ACSR_3PH_12KV_3 Length=0.084549 units=km
New Line.ND83942198$4427498EPH phases=3 Bus1=83941884.1.2.3 Bus2=83942198.1.2.3 LineCode=336_ACSR_3PH_12KV_3 Length=0.044126 units=km
New Line.ND83942198$1263151E phases=2 Bus1=83942198.1.2 Bus2=61854599.1.2 LineCode=1/0_ACSR_2PH_12KV_2 Length=0.008757 units=km
New Line.ND61885936$4745477E phases=3 Bus1=61885936.1.2.3 Bus2=61868255.1.2.3 LineCode=1/0_ACSR_3PH_12KV_3 Length=0.107474 units=km
New Line.1153835E$ND83942198 phases=3 Bus1=83942198.1.2.3 Bus2=61871811.1.2.3 LineCode=336_ACSR_3PH_12KV_3 Length=0.04954 units=km
New Line.ND61885936$ND61885989 phases=2 Bus1=61885936.1.3 Bus2=61885989.1.3 LineCode=4_ACSR_2PH_12KV_2 Length=0.131058 units=km
New Line.4745477E$1154362E phases=3 Bus1=61868255.1.2.3 Bus2=61868205.1.2.3 LineCode=1/0_ACSR_3PH_12KV_3 Length=0.08264 units=km
New Line.ND59248090$ND59246921 phases=3 Bus1=59248090.1.2.3 Bus2=59246921.1.2.3 LineCode=4_ACSR_3PH_12KV_3 Length=0.033407 units=km
New Line.1075252E$1075255E phases=2 Bus1=59224559.1.2 Bus2=59222854.1.2 LineCode=4_ACSR_2PH_12KV_2 Length=0.089339 units=km
New Line.1086995E$1086997E phases=3 Bus1=59223330.1.2.3 Bus2=59223305.1.2.3 LineCode=4_ACSR_3PH_12KV_3 Length=0.062178 units=km
New Line.ND59246921$4708315E phases=3 Bus1=59246921.1.2.3 Bus2=59223630.1.2.3 LineCode=4_ACSR_3PH_12KV_3 Length=0.074089 units=km
New Line.2356294E$4710730E phases=2 Bus1=59223755.2.3 Bus2=59223730.2.3 LineCode=4_ACSR_2PH_12KV_2 Length=0.072721 units=km
New Line.1075370E$1075371E phases=2 Bus1=59224534.1.2 Bus2=59272086.1.2 LineCode=4_ACSR_2PH_12KV_2 Length=0.036861 units=km
New Line.1086997E$1086998E phases=3 Bus1=59223305.1.2.3 Bus2=59223280.1.2.3 LineCode=4_ACSR_3PH_12KV_3 Length=0.054863 units=km
New Line.4710730E$1093689E phases=2 Bus1=59223730.2.3 Bus2=59223705.2.3 LineCode=4_ACSR_2PH_12KV_2 Length=0.036561 units=km
New Line.4708315E$ND59270553 phases=3 Bus1=59223630.1.2.3 Bus2=59270553.1.2.3 LineCode=4_ACSR_3PH_12KV_3 Length=0.027229 units=km
New Line.1086998E$1093252E phases=3 Bus1=59223280.1.2.3 Bus2=59223255.1.2.3 LineCode=4_ACSR_3PH_12KV_3 Length=0.069747 units=km
New Line.ND59270553$1093663E phases=2 Bus1=59270553.2.3 Bus2=59223580.2.3 LineCode=4_ACSR_2PH_12KV_2 Length=0.03468 units=km
New Line.1093689E$1093688E phases=2 Bus1=59223705.2.3 Bus2=59223680.2.3 LineCode=4_ACSR_2PH_12KV_2 Length=0.036804 units=km
New Line.ND59270553$ND59271375 phases=3 Bus1=59270553.1.2.3 Bus2=59271375.1.2.3 LineCode=4_ACSR_3PH_12KV_3 Length=0.077086 units=km
New Line.ND61885989$1228182E phases=2 Bus1=61885989.1.3 Bus2=61868305.1.3 LineCode=4_ACSR_2PH_12KV_2 Length=0.018265 units=km
New Line.ND61885989$1228172E phases=2 Bus1=61885989.1.3 Bus2=61868405.1.3 LineCode=4_ACSR_2PH_12KV_2 Length=0.146176 units=km
New Line.1154362E$1194430E phases=2 Bus1=61868205.1.2 Bus2=61868230.1.2 LineCode=4_ACSR_2PH_12KV_2 Length=0.14065 units=km
New Line.1228182E$1228185E phases=2 Bus1=61868305.1.3 Bus2=61871130.1.3 LineCode=4_ACSR_2PH_12KV_2 Length=0.088029 units=km
New Line.1153835E$ND61885705 phases=3 Bus1=61871812.1.2.3 Bus2=61885705.1.2.3 LineCode=336_ACSR_3PH_12KV_3 Length=0.004327 units=km
New Line.1153837E$ND61885705 phases=4 Bus1=61885705.0.1.2.3 Bus2=61854572.0.1.2.3 LineCode=336_ACSR_3PH_336_ACSR_N_12KV_4 Length=0.067843 units=km
New Line.1228185E$1228189E phases=2 Bus1=61871130.1.3 Bus2=61868330.1.3 LineCode=4_ACSR_2PH_12KV_2 Length=0.057924 units=km
New Line.ND61885705$ND61885706 phases=4 Bus1=61885705.0.1.2.3 Bus2=61885706.0.1.2.3 LineCode=336_ACSR_3PH_336_ACSR_N_12KV_4 Length=0.073135 units=km
New Line.1093252E$1093253E phases=3 Bus1=59223255.1.2.3 Bus2=59223230.1.2.3 LineCode=4_ACSR_3PH_12KV_3 Length=0.040415 units=km
New Line.1093663E$1093665E phases=2 Bus1=59223580.2.3 Bus2=59223605.2.3 LineCode=4_ACSR_2PH_12KV_2 Length=0.072838 units=km
New Line.1093688E$1093686E phases=2 Bus1=59223680.2.3 Bus2=59223655.2.3 LineCode=4_ACSR_2PH_12KV_2 Length=0.051796 units=km
New Line.ND59271375$BF10345 phases=3 Bus1=59271375.1.2.3 Bus2=59246886.1.2.3 LineCode=4_ACSR_3PH_12KV_3 Length=0.079462 units=km
New Line.ND59271375$BF10338 phases=2 Bus1=59271375.1.3 Bus2=59246902.1.3 LineCode=4_ACSR_2PH_12KV_2 Length=0.036605 units=km
New Line.1093253E$1093254E phases=3 Bus1=59223230.1.2.3 Bus2=59227879.1.2.3 LineCode=4_ACSR_3PH_12KV_3 Length=0.034985 units=km
New Line.BF10345$ND59247731 phases=2 Bus1=59246887.2.3 Bus2=59247731.2.3 LineCode=4_ACSR_2PH_12KV_2 Length=0.037729 units=km
New Line.BF10338$ND59247929 phases=2 Bus1=59246903.1.3 Bus2=59247929.1.3 LineCode=4_ACSR_2PH_12KV_2 Length=0.036605 units=km
New Line.1093254E$ND59271622 phases=3 Bus1=59227879.1.2.3 Bus2=59271622.1.2.3 LineCode=4_ACSR_3PH_12KV_3 Length=0.026141 units=km
New Line.ND59271622$1093256E phases=3 Bus1=59271622.1.2.3 Bus2=59223355.1.2.3 LineCode=4_ACSR_3PH_12KV_3 Length=0.025497 units=km
New Line.ND59247731$1093633E phases=2 Bus1=59247731.2.3 Bus2=59223380.2.3 LineCode=4_ACSR_2PH_12KV_2 Length=0.03753 units=km
New Line.ND59247731$1093631E phases=2 Bus1=59247731.2.3 Bus2=59223405.2.3 LineCode=4_ACSR_2PH_12KV_2 Length=0.037729 units=km
New Line.ND61885706$4447576E phases=2 Bus1=61885706.1.3 Bus2=61854674.1.3 LineCode=1/0_ACSR_2PH_12KV_2 Length=0.06772 units=km
New Line.1153840E$1153837E phases=4 Bus1=61854572.0.1.2.3 Bus2=61871053.0.1.2.3 LineCode=336_ACSR_3PH_336_ACSR_N_12KV_4 Length=0.049576 units=km
New Line.ND61885706$ND61886696 phases=4 Bus1=61885706.0.1.2.3 Bus2=61886696.0.1.2.3 LineCode=336_ACSR_3PH_336_ACSR_N_12KV_4 Length=0.074185 units=km
New Line.1153841E$1153840E phases=4 Bus1=61871053.0.1.2.3 Bus2=61854543.0.1.2.3 LineCode=336_ACSR_3PH_336_ACSR_N_12KV_4 Length=0.025873 units=km
New Line.ND61886696$1153847E phases=2 Bus1=61886696.1.3 Bus2=61854699.1.3 LineCode=1/0_ACSR_2PH_12KV_2 Length=0.066208 units=km
New Line.ND61886696$ND61885878 phases=4 Bus1=61886696.0.1.2.3 Bus2=61885878.0.1.2.3 LineCode=336_ACSR_3PH_336_ACSR_N_12KV_4 Length=0.074776 units=km
New Line.1153847E$1153848E phases=2 Bus1=61854699.1.3 Bus2=61854649.1.3 LineCode=1/0_ACSR_2PH_12KV_2 Length=0.03686 units=km
New Line.ND61885878$1153849E phases=3 Bus1=61885878.1.2.3 Bus2=61854726.1.2.3 LineCode=336_ACSR_3PH_12KV_3 Length=0.038349 units=km
New Line.ND61885878$ND61885604 phases=4 Bus1=61885878.0.1.2.3 Bus2=61885604.0.1.2.3 LineCode=336_ACSR_3PH_336_ACSR_N_12KV_4 Length=0.067783 units=km
New Line.1153849E$1154202E phases=3 Bus1=61854726.1.2.3 Bus2=61854755.1.2.3 LineCode=336_ACSR_3PH_12KV_3 Length=0.099319 units=km
New Line.ND61885604$4446760E phases=4 Bus1=61885604.0.1.2.3 Bus2=61871559.0.1.2.3 LineCode=4/0_CU_3PH_4/0_CU_N_12KV_4 Length=0.031278 units=km
New Line.PS0743$ND61885604 phases=4 Bus1=61885604.0.1.2.3 Bus2=61872038.0.1.2.3 LineCode=336_ACSR_3PH_336_ACSR_N_12KV_4 Length=0.017334 units=km
New Line.4446760E$PS6373 phases=4 Bus1=61871559.0.1.2.3 Bus2=59246403.0.1.2.3 LineCode=336_ACSR_3PH_336_ACSR_N_12KV_4 Length=0.037583 units=km
New Line.1154202E$ND61885813 phases=3 Bus1=61854755.1.2.3 Bus2=61885813.1.2.3 LineCode=336_ACSR_3PH_12KV_3 Length=0.018766 units=km
New Line.ND83943305$BF10013 phases=2 Bus1=83942083.1.2 Bus2=83943305.1.2 LineCode=4_ACSR_2PH_12KV_2 Length=0.028542 units=km
New Line.ND83943305$ND179412883 phases=2 Bus1=83943305.1.2 Bus2=179412883.1.2 LineCode=4_ACSR_2PH_12KV_2 Length=0.028542 units=km
New Line.PS0743$ND61885478 phases=4 Bus1=61872037.0.1.2.3 Bus2=61885478.0.1.2.3 LineCode=336_ACSR_3PH_336_ACSR_N_12KV_4 Length=0.059877 units=km
New Line.ND61885813$ND61885907 phases=3 Bus1=61885813.1.2.3 Bus2=61885907.1.2.3 LineCode=336_ACSR_3PH_12KV_3 Length=0.039461 units=km
New Line.ND83942151$ND83943305 phases=2 Bus1=83943305.1.2 Bus2=83942151.1.2 LineCode=4_ACSR_2PH_12KV_2 Length=0.041025 units=km
New Line.ND59247929$1093648E phases=2 Bus1=59247929.1.3 Bus2=59223455.1.3 LineCode=4_ACSR_2PH_12KV_2 Length=0.029426 units=km
New Line.ND59247929$1093650E phases=2 Bus1=59247929.1.3 Bus2=59223555.1.3 LineCode=4_ACSR_2PH_12KV_2 Length=0.036605 units=km
New Line.ND59271622$BF10346 phases=2 Bus1=59271622.1.2 Bus2=59246870.1.2 LineCode=4_ACSR_2PH_12KV_2 Length=0.025497 units=km
New Line.1093648E$1093644E phases=2 Bus1=59223455.1.3 Bus2=59196990.1.3 LineCode=4_ACSR_2PH_12KV_2 Length=0.093701 units=km
New Line.1093631E$1093628E phases=2 Bus1=59223405.2.3 Bus2=59223430.2.3 LineCode=4_ACSR_2PH_12KV_2 Length=0.117288 units=km
New Line.1093650E$4605772E phases=2 Bus1=59223555.1.3 Bus2=59223530.1.3 LineCode=4_ACSR_2PH_12KV_2 Length=0.073254 units=km
New Line.1093633E$ND59247542 phases=2 Bus1=59223380.2.3 Bus2=59247542.2.3 LineCode=4_ACSR_2PH_12KV_2 Length=0.096734 units=km
New Line.ND59247542$1093642E phases=2 Bus1=59247542.2.3 Bus2=59197015.2.3 LineCode=4_ACSR_2PH_12KV_2 Length=0.037649 units=km
New Line.1093628E$1093626E phases=2 Bus1=59223430.2.3 Bus2=59197040.2.3 LineCode=4_ACSR_2PH_12KV_2 Length=0.071247 units=km
New Line.ND59247542$1093637E phases=2 Bus1=59247542.2.3 Bus2=59197065.2.3 LineCode=4_ACSR_2PH_12KV_2 Length=0.042345 units=km
New Line.ND61885907$BF10944 phases=3 Bus1=61885907.1.2.3 Bus2=191659613.1.2.3 LineCode=4_ACSR_3PH_12KV_3 Length=0.081431 units=km
New Line.1075326E$PS6373 phases=4 Bus1=59246402.0.1.2.3 Bus2=59194193.0.1.2.3 LineCode=4/0_ACSR_3PH_4/0_ACSR_N_12KV_4 Length=0.129468 units=km
New Line.ND61885907$1194100E phases=2 Bus1=61885907.1.2 Bus2=61854857.1.2 LineCode=4_ACSR_2PH_12KV_2 Length=0.044264 units=km
New Line.ND179412883$1051929E phases=2 Bus1=179412883.1.2 Bus2=61868080.1.2 LineCode=4_ACSR_2PH_12KV_2 Length=0.073928 units=km
New Line.ND61885478$ND61885571 phases=4 Bus1=61885478.0.1.2.3 Bus2=61885571.0.1.2.3 LineCode=336_ACSR_3PH_336_ACSR_N_12KV_4 Length=0.059877 units=km
New Line.ND83942121$ND83942151 phases=2 Bus1=83942151.1.2 Bus2=83942121.1.2 LineCode=4_ACSR_2PH_12KV_2 Length=0.041025 units=km
New Line.1075329E$1075326E phases=4 Bus1=59194193.0.1.2.3 Bus2=59194222.0.1.2.3 LineCode=4/0_ACSR_3PH_4/0_ACSR_N_12KV_4 Length=0.139417 units=km
New Line.4708311E$ND61885571 phases=2 Bus1=61885571.2.3 Bus2=61855032.2.3 LineCode=4_ACSR_2PH_12KV_2 Length=0.100033 units=km
New Line.1051929E$1051928E phases=2 Bus1=61868080.1.2 Bus2=61868105.1.2 LineCode=4_ACSR_2PH_12KV_2 Length=0.046107 units=km
New Line.1194100E$1194098E phases=2 Bus1=61854857.1.2 Bus2=61871080.1.2 LineCode=4_ACSR_2PH_12KV_2 Length=0.05796 units=km
New Line.ND61885571$ND61885572 phases=4 Bus1=61885571.0.1.2.3 Bus2=61885572.0.1.2.3 LineCode=336_ACSR_3PH_336_ACSR_N_12KV_4 Length=0.065549 units=km
New Line.4605772E$1093655E phases=2 Bus1=59223530.1.3 Bus2=59223505.1.3 LineCode=4_ACSR_2PH_12KV_2 Length=0.100131 units=km
New Line.BF10346$ND59270187 phases=2 Bus1=59246871.1.2 Bus2=59270187.1.2 LineCode=4_ACSR_2PH_12KV_2 Length=0.080143 units=km
New Line.ND59270187$1093267E phases=2 Bus1=59270187.1.2 Bus2=59223130.1.2 LineCode=4_ACSR_2PH_12KV_2 Length=0.055746 units=km
New Line.ND59270187$1093261E phases=2 Bus1=59270187.1.2 Bus2=59223180.1.2 LineCode=4_ACSR_2PH_12KV_2 Length=0.0443 units=km
New Line.1093655E$1093669E phases=2 Bus1=59223505.1.3 Bus2=59223480.1.3 LineCode=4_ACSR_2PH_12KV_2 Length=0.020733 units=km
New Line.BF10944$BF11493 phases=3 Bus1=191659614.1.2.3 Bus2=232537685.1.2.3 LineCode=4_ACSR_3PH_12KV_3 Length=0.010518 units=km
New Line.1194098E$4447581E phases=2 Bus1=61871080.1.2 Bus2=238351372.1.2 LineCode=4_ACSR_2PH_12KV_2 Length=0.064071 units=km
New Line.ND59270881$1075329E phases=4 Bus1=59194222.0.1.2.3 Bus2=59270881.0.1.2.3 LineCode=4/0_ACSR_3PH_4/0_ACSR_N_12KV_4 Length=0.025919 units=km
New Line.ND61885572$1075354E phases=2 Bus1=61885572.2.3 Bus2=61855057.2.3 LineCode=4_ACSR_2PH_12KV_2 Length=0.08837 units=km
New Line.1051928E$1051926E phases=2 Bus1=61868105.1.2 Bus2=61868130.1.2 LineCode=4_ACSR_2PH_12KV_2 Length=0.09217 units=km
New Line.ND61885572$ND61885527 phases=4 Bus1=61885572.0.1.2.3 Bus2=61885527.0.1.2.3 LineCode=336_ACSR_3PH_336_ACSR_N_12KV_4 Length=0.076416 units=km
New Line.PD0692$ND59270881 phases=4 Bus1=59270881.0.1.2.3 Bus2=59246589.0.1.2.3 LineCode=4_ACSR_3PH_4_ACSR_N_12KV_4 Length=0.036124 units=km
New Line.PD0428$ND59270881 phases=4 Bus1=59270881.0.1.2.3 Bus2=59246604.0.1.2.3 LineCode=1/0_ACSR_3PH_1/0_ACSR_N_12KV_4 Length=0.008101 units=km
New Line.1051926E$1051923E phases=2 Bus1=61868130.1.2 Bus2=61868155.1.2 LineCode=4_ACSR_2PH_12KV_2 Length=0.139647 units=km
New Line.ND61885527$1075268E phases=4 Bus1=61885527.0.1.2.3 Bus2=61870660.0.1.2.3 LineCode=336_ACSR_3PH_336_ACSR_N_12KV_4 Length=0.037267 units=km
New Line.ND61885527$ND61885528 phases=4 Bus1=61885527.0.1.2.3 Bus2=61885528.0.1.2.3 LineCode=336_ACSR_3PH_336_ACSR_N_12KV_4 Length=0.037845 units=km
New Line.4447581E$1194096E phases=2 Bus1=238351372.1.2 Bus2=98793030.1.2 LineCode=4_ACSR_2PH_12KV_2 Length=0.025432 units=km
New Line.1075357E$ND61885528 phases=2 Bus1=61885528.1.2 Bus2=61854624.1.2 LineCode=4_ACSR_2PH_12KV_2 Length=0.060263 units=km
New Line.1093261E$1093262E phases=2 Bus1=59223180.1.2 Bus2=135544458.1.2 LineCode=4_ACSR_2PH_12KV_2 Length=0.037685 units=km
New Line.1093267E$1093268E phases=2 Bus1=59223130.1.2 Bus2=258914792.1.2 LineCode=4_ACSR_2PH_12KV_2 Length=0.10537 units=km
New Line.1093268E$1093270E phases=2 Bus1=258914792.1.2 Bus2=59223105.1.2 LineCode=4_ACSR_2PH_12KV_2 Length=0.056183 units=km
New Line.1093262E$1093264E phases=2 Bus1=135544458.1.2 Bus2=59223155.1.2 LineCode=4_ACSR_2PH_12KV_2 Length=0.088711 units=km
New Line.1051923E$1051922E phases=2 Bus1=61868155.1.2 Bus2=61868180.1.2 LineCode=4_ACSR_2PH_12KV_2 Length=0.04926 units=km
New Line.BF11493$ND61885727 phases=3 Bus1=232537686.1.2.3 Bus2=61885727.1.2.3 LineCode=4_ACSR_3PH_12KV_3 Length=0.010283 units=km
New Line.ND61885528$ND61885734 phases=4 Bus1=61885528.0.1.2.3 Bus2=61885734.0.1.2.3 LineCode=336_ACSR_3PH_336_ACSR_N_12KV_4 Length=0.07508 units=km
New Line.PD0428$BF07513 phases=3 Bus1=59246603.1.2.3 Bus2=240117758.1.2.3 LineCode=1/0_ACSR_3PH_12KV_3 Length=0.042309 units=km
New Line.PD0692$ND59270456 phases=3 Bus1=59246590.1.2.3 Bus2=59270456.1.2.3 LineCode=4_ACSR_3PH_12KV_3 Length=0.065122 units=km
...

! Switches
New Line.5420556:X5420556OT phases=1 Bus1=61885427.1 Bus2=61885426.1 switch=y r1=0.001 x1=0.001 r0=0.001 x0=0.001 Length=0.001 units=km enabled=false
New Line.1153835E:1153835E phases=3 Bus1=61871811.1.2.3 Bus2=61871812.1.2.3 switch=y r1=0.001 x1=0.001 r0=0.001 x0=0.001 Length=0.001 units=km
New Line.1496532E:1496532ET1 phases=2 Bus1=237617490.1.3 Bus2=237617491.1.3 switch=y r1=0.001 x1=0.001 r0=0.001 x0=0.001 Length=0.001 units=km
New Line.5355412:GS2086-4 phases=3 Bus1=265116755.1.2.3 Bus2=-777777265116755.1.2.3 switch=y r1=0.001 x1=0.001 r0=0.001 x0=0.001 Length=0.001 units=km enabled=false
New Line.5411849:B5411849-2 phases=1 Bus1=61868418.2 Bus2=-77777761868418.2 switch=y r1=0.001 x1=0.001 r0=0.001 x0=0.001 Length=0.001 units=km
New Line.5058198:P5058198-2 phases=1 Bus1=61869138.1 Bus2=-77777761869138.1 switch=y r1=0.001 x1=0.001 r0=0.001 x0=0.001 Length=0.001 units=km
New Line.5399556:P5399556-1 phases=1 Bus1=61869210.3 Bus2=-77777761869210.3 switch=y r1=0.001 x1=0.001 r0=0.001 x0=0.001 Length=0.001 units=km
New Line.5411845:B5411845-1 phases=1 Bus1=61868562.2 Bus2=-77777761868562.2 switch=y r1=0.001 x1=0.001 r0=0.001 x0=0.001 Length=0.001 units=km
New Line.5411848:B5411848-1 phases=1 Bus1=61868490.2 Bus2=-77777761868490.2 switch=y r1=0.001 x1=0.001 r0=0.001 x0=0.001 Length=0.001 units=km
New Line.5058160:B5058160-2 phases=1 Bus1=61869282.1 Bus2=-77777761869282.1 switch=y r1=0.001 x1=0.001 r0=0.001 x0=0.001 Length=0.001 units=km
New Line.5355408:B5355408-2 phases=2 Bus1=59224852.1.3 Bus2=-77777759224852.1.3 switch=y r1=0.001 x1=0.001 r0=0.001 x0=0.001 Length=0.001 units=km
New Line.5411844:B5411844-1 phases=1 Bus1=61868922.2 Bus2=-77777761868922.2 switch=y r1=0.001 x1=0.001 r0=0.001 x0=0.001 Length=0.001 units=km
New Line.5333547:P5333547-1 phases=3 Bus1=59224033.1.2.3 Bus2=-77777759224033.1.2.3 switch=y r1=0.001 x1=0.001 r0=0.001 x0=0.001 Length=0.001 units=km
New Line.5058154:B5058154-1 phases=1 Bus1=61869714.1 Bus2=-77777761869714.1 switch=y r1=0.001 x1=0.001 r0=0.001 x0=0.001 Length=0.001 units=km
New Line.5355411:B5355411-1 phases=2 Bus1=59224597.1.2 Bus2=-77777759224597.1.2 switch=y r1=0.001 x1=0.001 r0=0.001 x0=0.001 Length=0.001 units=km
New Line.5058157:B5058157-2 phases=1 Bus1=61869642.3 Bus2=-77777761869642.3 switch=y r1=0.001 x1=0.001 r0=0.001 x0=0.001 Length=0.001 units=km
New Line.5644378:P5644378-2 phases=1 Bus1=172804950.1 Bus2=-777777172804950.1 switch=y r1=0.001 x1=0.001 r0=0.001 x0=0.001 Length=0.001 units=km
New Line.5646889:P5646889-1 phases=1 Bus1=172804813.1 Bus2=-777777172804813.1 switch=y r1=0.001 x1=0.001 r0=0.001 x0=0.001 Length=0.001 units=km
New Line.5562816:P5562816-1 phases=1 Bus1=90594101.3 Bus2=-77777790594101.3 switch=y r1=0.001 x1=0.001 r0=0.001 x0=0.001 Length=0.001 units=km
New Line.5562817:P5562817-1 phases=1 Bus1=90594305.3 Bus2=-77777790594305.3 switch=y r1=0.001 x1=0.001 r0=0.001 x0=0.001 Length=0.001 units=km
New Line.5562818:P5562818-2 phases=1 Bus1=90594237.3 Bus2=-77777790594237.3 switch=y r1=0.001 x1=0.001 r0=0.001 x0=0.001 Length=0.001 units=km
New Line.5411849:B5411849-1 phases=1 Bus1=61868417.2 Bus2=61868418.2 switch=y r1=0.001 x1=0.001 r0=0.001 x0=0.001 Length=0.001 units=km
New Line.5058198:P5058198-1 phases=1 Bus1=61869137.1 Bus2=61869138.1 switch=y r1=0.001 x1=0.001 r0=0.001 x0=0.001 Length=0.001 units=km
New Line.5058165:B5058165-2 phases=1 Bus1=61869362.1 Bus2=61869354.1 switch=y r1=0.001 x1=0.001 r0=0.001 x0=0.001 Length=0.001 units=km
New Line.5399555:P5399555-1 phases=1 Bus1=61870174.3 Bus2=61870175.3 switch=y r1=0.001 x1=0.001 r0=0.001 x0=0.001 Length=0.001 units=km
New Line.5644379:P5644379-2 phases=1 Bus1=169366150.1 Bus2=169366142.1 switch=y r1=0.001 x1=0.001 r0=0.001 x0=0.001 Length=0.001 units=km
New Line.5411839:B5411839-2 phases=1 Bus1=61868714.2 Bus2=61868706.2 switch=y r1=0.001 x1=0.001 r0=0.001 x0=0.001 Length=0.001 units=km
New Line.5058165:B5058165-1 phases=1 Bus1=61869354.1 Bus2=61869353.1 switch=y r1=0.001 x1=0.001 r0=0.001 x0=0.001 Length=0.001 units=km
New Line.5399555:P5399555-2 phases=1 Bus1=61870175.3 Bus2=61870183.3 switch=y r1=0.001 x1=0.001 r0=0.001 x0=0.001 Length=0.001 units=km
New Line.5124007:J007A-1 phases=3 Bus1=202048641.1.2.3 Bus2=202048642.1.2.3 switch=y r1=0.001 x1=0.001 r0=0.001 x0=0.001 Length=0.001 units=km
New Line.OS2085-2$OS2085-3 phases=3 Bus1=59224666.1.2.3 Bus2=59224672.1.2.3 switch=y r1=0.001 x1=0.001 r0=0.001 x0=0.001 Length=0.001 units=km
New Line.OS2085-3$59224707 phases=3 Bus1=59224672.1.2.3 Bus2=59224678.1.2.3 switch=y r1=0.001 x1=0.001 r0=0.001 x0=0.001 Length=0.001 units=km
New Line.172805064 phases=1 Bus1=172805066.1 Bus2=172805067.1 switch=y r1=0.001 x1=0.001 r0=0.001 x0=0.001 Length=0.001 units=km
New Line.70978755 phases=3 Bus1=70978757.1.2.3 Bus2=70978758.1.2.3 switch=y r1=0.001 x1=0.001 r0=0.001 x0=0.001 Length=0.001 units=km
New Line.83941620$83941612 phases=3 Bus1=83941594.1.2.3 Bus2=83941595.1.2.3 switch=y r1=0.001 x1=0.001 r0=0.001 x0=0.001 Length=0.001 units=km
New Line.83942356$83942372 phases=3 Bus1=83942360.1.2.3 Bus2=83942376.1.2.3 switch=y r1=0.001 x1=0.001 r0=0.001 x0=0.001 Length=0.001 units=km
New Line.172805220 phases=1 Bus1=172805222.1 Bus2=172805223.1 switch=y r1=0.001 x1=0.001 r0=0.001 x0=0.001 Length=0.001 units=km
New Line.83941612$83941628 phases=3 Bus1=83941595.1.2.3 Bus2=83941601.1.2.3 switch=y r1=0.001 x1=0.001 r0=0.001 x0=0.001 Length=0.001 units=km
New Line.83942372$83942364 phases=3 Bus1=83942376.1.2.3 Bus2=83942368.1.2.3 switch=y r1=0.001 x1=0.001 r0=0.001 x0=0.001 Length=0.001 units=km
New Line.83941628$83941636 phases=3 Bus1=83941601.1.2.3 Bus2=83941607.1.2.3 switch=y r1=0.001 x1=0.001 r0=0.001 x0=0.001 Length=0.001 units=km
New Line.223867731 phases=3 Bus1=223867733.1.2.3 Bus2=223867734.1.2.3 switch=y r1=0.001 x1=0.001 r0=0.001 x0=0.001 Length=0.001 units=km
New Line.83941905$83941913 phases=3 Bus1=83941917.1.2.3 Bus2=83941909.1.2.3 switch=y r1=0.001 x1=0.001 r0=0.001 x0=0.001 Length=0.001 units=km
New Line.172805098 phases=1 Bus1=172805101.1 Bus2=172805100.1 switch=y r1=0.001 x1=0.001 r0=0.001 x0=0.001 Length=0.001 units=km
New Line.83941921$83941905 phases=3 Bus1=83941909.1.2.3 Bus2=83941925.1.2.3 switch=y r1=0.001 x1=0.001 r0=0.001 x0=0.001 Length=0.001 units=km
New Line.83941897$83941921 phases=3 Bus1=83941925.1.2.3 Bus2=83941901.1.2.3 switch=y r1=0.001 x1=0.001 r0=0.001 x0=0.001 Length=0.001 units=km
New Line.90594493 phases=1 Bus1=90594495.3 Bus2=90594496.3 switch=y r1=0.001 x1=0.001 r0=0.001 x0=0.001 Length=0.001 units=km
New Line.172805125 phases=1 Bus1=172805127.1 Bus2=172805128.1 switch=y r1=0.001 x1=0.001 r0=0.001 x0=0.001 Length=0.001 units=km
New Line.83941371$83941363 phases=3 Bus1=83941367.1.2.3 Bus2=83941375.1.2.3 switch=y r1=0.001 x1=0.001 r0=0.001 x0=0.001 Length=0.001 units=km
New Line.83943042$GS2330-2 phases=3 Bus1=83943030.1.2.3 Bus2=83943031.1.2.3 switch=y r1=0.001 x1=0.001 r0=0.001 x0=0.001 Length=0.001 units=km
New Line.83941355$83941371 phases=3 Bus1=83941375.1.2.3 Bus2=83941359.1.2.3 switch=y r1=0.001 x1=0.001 r0=0.001 x0=0.001 Length=0.001 units=km
New Line.GS2330-2$83943058 phases=3 Bus1=83943031.1.2.3 Bus2=83943037.1.2.3 switch=y r1=0.001 x1=0.001 r0=0.001 x0=0.001 Length=0.001 units=km
New Line.1496526E:61870346 phases=2 Bus1=61870348.1.3 Bus2=61870349.1.3 switch=y r1=0.001 x1=0.001 r0=0.001 x0=0.001 Length=0.001 units=km
New Line.1496532E:61870421 phases=2 Bus1=61870423.1.3 Bus2=61870424.1.3 switch=y r1=0.001 x1=0.001 r0=0.001 x0=0.001 Length=0.001 units=km
New Line.1062702E:61853770 phases=2 Bus1=61853772.1.2 Bus2=61853773.1.2 switch=y r1=0.001 x1=0.001 r0=0.001 x0=0.001 Length=0.001 units=km
New Line.1496524E:61870371 phases=2 Bus1=61870373.1.3 Bus2=61870374.1.3 switch=y r1=0.001 x1=0.001 r0=0.001 x0=0.001 Length=0.001 units=km
New Line.1497686E:61870446 phases=2 Bus1=61870448.1.3 Bus2=61870449.1.3 switch=y r1=0.001 x1=0.001 r0=0.001 x0=0.001 Length=0.001 units=km
New Line.1086974E:110818634 phases=2 Bus1=110818636.1.3 Bus2=110818637.1.3 switch=y r1=0.001 x1=0.001 r0=0.001 x0=0.001 Length=0.001 units=km
New Line.1086989E:59222956 phases=3 Bus1=59222958.1.2.3 Bus2=59222959.1.2.3 switch=y r1=0.001 x1=0.001 r0=0.001 x0=0.001 Length=0.001 units=km
New Line.1086975E:59223037 phases=2 Bus1=59223039.1.3 Bus2=59223040.1.3 switch=y r1=0.001 x1=0.001 r0=0.001 x0=0.001 Length=0.001 units=km
New Line.1496522E:61870321 phases=2 Bus1=61870323.1.3 Bus2=61870324.1.3 switch=y r1=0.001 x1=0.001 r0=0.001 x0=0.001 Length=0.001 units=km
New Line.1497689E:61870496 phases=2 Bus1=61870498.1.3 Bus2=61870499.1.3 switch=y r1=0.001 x1=0.001 r0=0.001 x0=0.001 Length=0.001 units=km
New Line.1228163E:61870571 phases=2 Bus1=61870573.1.3 Bus2=61870574.1.3 switch=y r1=0.001 x1=0.001 r0=0.001 x0=0.001 Length=0.001 units=km
New Line.1497692E:61870471 phases=2 Bus1=61870473.1.3 Bus2=61870474.1.3 switch=y r1=0.001 x1=0.001 r0=0.001 x0=0.001 Length=0.001 units=km
New Line.1086976E:59223062 phases=2 Bus1=59223064.1.3 Bus2=59223065.1.3 switch=y r1=0.001 x1=0.001 r0=0.001 x0=0.001 Length=0.001 units=km
New Line.1086993E:59223762 phases=3 Bus1=59223764.1.2.3 Bus2=59223765.1.2.3 switch=y r1=0.001 x1=0.001 r0=0.001 x0=0.001 Length=0.001 units=km
New Line.4772155E:245341991 phases=3 Bus1=245341993.1.2.3 Bus2=245341994.1.2.3 switch=y r1=0.001 x1=0.001 r0=0.001 x0=0.001 Length=0.001 units=km
New Line.1228161E:61868362 phases=2 Bus1=61868364.1.3 Bus2=61868365.1.3 switch=y r1=0.001 x1=0.001 r0=0.001 x0=0.001 Length=0.001 units=km
New Line.1154353E:61868337 phases=3 Bus1=61868339.1.2.3 Bus2=61868340.1.2.3 switch=y r1=0.001 x1=0.001 r0=0.001 x0=0.001 Length=0.001 units=km
New Line.1154355E:61868262 phases=3 Bus1=61868264.1.2.3 Bus2=61868265.1.2.3 switch=y r1=0.001 x1=0.001 r0=0.001 x0=0.001 Length=0.001 units=km
New Line.1075279E:59224566 phases=2 Bus1=59224568.1.2 Bus2=59224569.1.2 switch=y r1=0.001 x1=0.001 r0=0.001 x0=0.001 Length=0.001 units=km
New Line.1086995E:59223312 phases=3 Bus1=59223314.1.2.3 Bus2=59223315.1.2.3 switch=y r1=0.001 x1=0.001 r0=0.001 x0=0.001 Length=0.001 units=km
New Line.2356294E:59223737 phases=2 Bus1=59223739.2.3 Bus2=59223740.2.3 switch=y r1=0.001 x1=0.001 r0=0.001 x0=0.001 Length=0.001 units=km
New Line.1075370E:59224516 phases=2 Bus1=59224518.1.2 Bus2=59224519.1.2 switch=y r1=0.001 x1=0.001 r0=0.001 x0=0.001 Length=0.001 units=km
New Line.1075252E:59224541 phases=2 Bus1=59224543.1.2 Bus2=59224544.1.2 switch=y r1=0.001 x1=0.001 r0=0.001 x0=0.001 Length=0.001 units=km
New Line.1075371E:213056931 phases=2 Bus1=213056933.1.2 Bus2=213056934.1.2 switch=y r1=0.001 x1=0.001 r0=0.001 x0=0.001 Length=0.001 units=km
New Line.1075255E:59197072 phases=2 Bus1=59197074.1.2 Bus2=59197075.1.2 switch=y r1=0.001 x1=0.001 r0=0.001 x0=0.001 Length=0.001 units=km
New Line.1086997E:59223287 phases=3 Bus1=59223289.1.2.3 Bus2=59223290.1.2.3 switch=y r1=0.001 x1=0.001 r0=0.001 x0=0.001 Length=0.001 units=km
New Line.4708315E:59223612 phases=3 Bus1=59223614.1.2.3 Bus2=59223615.1.2.3 switch=y r1=0.001 x1=0.001 r0=0.001 x0=0.001 Length=0.001 units=km
New Line.4710730E:59223712 phases=2 Bus1=59223714.2.3 Bus2=59223715.2.3 switch=y r1=0.001 x1=0.001 r0=0.001 x0=0.001 Length=0.001 units=km
New Line.1263151E:61854581 phases=2 Bus1=61854583.1.2 Bus2=61854584.1.2 switch=y r1=0.001 x1=0.001 r0=0.001 x0=0.001 Length=0.001 units=km
New Line.4745477E:61868237 phases=3 Bus1=61868239.1.2.3 Bus2=61868240.1.2.3 switch=y r1=0.001 x1=0.001 r0=0.001 x0=0.001 Length=0.001 units=km
New Line.5515183:GS2332-2 phases=3 Bus1=83942254.1.2.3 Bus2=83942275.1.2.3 switch=y r1=0.001 x1=0.001 r0=0.001 x0=0.001 Length=0.001 units=km
New Line.5411846:J846A-2 phases=1 Bus1=61871332.2 Bus2=61871331.2 switch=y r1=0.001 x1=0.001 r0=0.001 x0=0.001 Length=0.001 units=km
New Line.5515183:GS2332-3 phases=3 Bus1=83942260.1.2.3 Bus2=83942283.1.2.3 switch=y r1=0.001 x1=0.001 r0=0.001 x0=0.001 Length=0.001 units=km
New Line.5411846:J846A-1 phases=1 Bus1=61871316.2 Bus2=61871315.2 switch=y r1=0.001 x1=0.001 r0=0.001 x0=0.001 Length=0.001 units=km
New Line.5058329:BS2129-T phases=3 Bus1=59224396.1.2.3 Bus2=59224389.1.2.3 switch=y r1=0.001 x1=0.001 r0=0.001 x0=0.001 Length=0.001 units=km
New Line.5058329:BS2129-R phases=3 Bus1=59224389.1.2.3 Bus2=59224388.1.2.3 switch=y r1=0.001 x1=0.001 r0=0.001 x0=0.001 Length=0.001 units=km
New Line.5058329:BS2129-L phases=3 Bus1=59224389.1.2.3 Bus2=59224405.1.2.3 switch=y r1=0.001 x1=0.001 r0=0.001 x0=0.001 Length=0.001 units=km
New Line.5355407:GS2084-3 phases=3 Bus1=240611002.1.2.3 Bus2=240610964.1.2.3 switch=y r1=0.001 x1=0.001 r0=0.001 x0=0.001 Length=0.001 units=km
New Line.5058328:J0328-4 phases=3 Bus1=59224273.1.2.3 Bus2=59224274.1.2.3 switch=y r1=0.001 x1=0.001 r0=0.001 x0=0.001 Length=0.001 units=km
New Line.5355407:GS2084-4 phases=3 Bus1=240610970.1.2.3 Bus2=240611011.1.2.3 switch=y r1=0.001 x1=0.001 r0=0.001 x0=0.001 Length=0.001 units=km
New Line.5355407:GS2084-1 phases=3 Bus1=240610957.1.2.3 Bus2=240610984.1.2.3 switch=y r1=0.001 x1=0.001 r0=0.001 x0=0.001 Length=0.001 units=km
New Line.5355407:GS2084-5 phases=3 Bus1=240610976.1.2.3 Bus2=240611020.1.2.3 switch=y r1=0.001 x1=0.001 r0=0.001 x0=0.001 Length=0.001 units=km
New Line.5058328:J0328-3 phases=3 Bus1=59224266.1.2.3 Bus2=59224265.1.2.3 switch=y r1=0.001 x1=0.001 r0=0.001 x0=0.001 Length=0.001 units=km
New Line.5058328:J0328-2 phases=3 Bus1=59224282.1.2.3 Bus2=59224281.1.2.3 switch=y r1=0.001 x1=0.001 r0=0.001 x0=0.001 Length=0.001 units=km
New Line.5058328:J0328-1 phases=3 Bus1=59224258.1.2.3 Bus2=59224257.1.2.3 switch=y r1=0.001 x1=0.001 r0=0.001 x0=0.001 Length=0.001 units=km
New Line.5644379:P5644379-1 phases=1 Bus1=169366142.1 Bus2=169366141.1 switch=y r1=0.001 x1=0.001 r0=0.001 x0=0.001 Length=0.001 units=km
New Line.5644377:P5644377-1 phases=1 Bus1=172804881.1 Bus2=172804882.1 switch=y r1=0.001 x1=0.001 r0=0.001 x0=0.001 Length=0.001 units=km
New Line.5411839:B5411839-1 phases=1 Bus1=61868706.2 Bus2=61868705.2 switch=y r1=0.001 x1=0.001 r0=0.001 x0=0.001 Length=0.001 units=km
New Line.5644377:P5644377-2 phases=1 Bus1=172804882.1 Bus2=172804890.1 switch=y r1=0.001 x1=0.001 r0=0.001 x0=0.001 Length=0.001 units=km
New Line.5399556:P5399556-2 phases=1 Bus1=61869218.3 Bus2=61869210.3 switch=y r1=0.001 x1=0.001 r0=0.001 x0=0.001 Length=0.001 units=km
New Line.5058164:B5058164-2 phases=1 Bus1=61869434.1 Bus2=61869426.1 switch=y r1=0.001 x1=0.001 r0=0.001 x0=0.001 Length=0.001 units=km
New Line.5411840:B5411840OT phases=1 Bus1=61885437.1 Bus2=61885436.1 switch=y r1=0.001 x1=0.001 r0=0.001 x0=0.001 Length=0.001 units=km enabled=false
New Line.5124007:J007A-2 phases=3 Bus1=202048658.1.2.3 Bus2=202048657.1.2.3 switch=y r1=0.001 x1=0.001 r0=0.001 x0=0.001 Length=0.001 units=km
New Line.5411845:B5411845-2 phases=1 Bus1=61868570.2 Bus2=61868562.2 switch=y r1=0.001 x1=0.001 r0=0.001 x0=0.001 Length=0.001 units=km
New Line.5411841:B5411841-2 phases=1 Bus1=61868786.2 Bus2=61868778.2 switch=y r1=0.001 x1=0.001 r0=0.001 x0=0.001 Length=0.001 units=km
New Line.5058164:B5058164-1 phases=1 Bus1=61869426.1 Bus2=61869425.1 switch=y r1=0.001 x1=0.001 r0=0.001 x0=0.001 Length=0.001 units=km
New Line.5124007:J007A-3 phases=3 Bus1=202048650.1.2.3 Bus2=202048649.1.2.3 switch=y r1=0.001 x1=0.001 r0=0.001 x0=0.001 Length=0.001 units=km
New Line.5411847:B5411847-1 phases=1 Bus1=61868633.2 Bus2=61868634.2 switch=y r1=0.001 x1=0.001 r0=0.001 x0=0.001 Length=0.001 units=km
New Line.5411841:B5411841-1 phases=1 Bus1=61868778.2 Bus2=61868777.2 switch=y r1=0.001 x1=0.001 r0=0.001 x0=0.001 Length=0.001 units=km
New Line.5411840:B5411840-1 phases=1 Bus1=61868849.2 Bus2=61868850.2 switch=y r1=0.001 x1=0.001 r0=0.001 x0=0.001 Length=0.001 units=km
New Line.5411847:B5411847-2 phases=1 Bus1=61868634.2 Bus2=61868642.2 switch=y r1=0.001 x1=0.001 r0=0.001 x0=0.001 Length=0.001 units=km
New Line.5411840:B5411840-2 phases=1 Bus1=61868850.2 Bus2=61868858.2 switch=y r1=0.001 x1=0.001 r0=0.001 x0=0.001 Length=0.001 units=km
New Line.5058163:B5058163-1 phases=1 Bus1=61869497.1 Bus2=61869498.1 switch=y r1=0.001 x1=0.001 r0=0.001 x0=0.001 Length=0.001 units=km
New Line.5058163:B5058163-2 phases=1 Bus1=61869498.1 Bus2=61869506.1 switch=y r1=0.001 x1=0.001 r0=0.001 x0=0.001 Length=0.001 units=km
New Line.5411848:B5411848-2 phases=1 Bus1=61868498.2 Bus2=61868490.2 switch=y r1=0.001 x1=0.001 r0=0.001 x0=0.001 Length=0.001 units=km
New Line.5411842:B5411842-2 phases=1 Bus1=61869074.2 Bus2=61869066.2 switch=y r1=0.001 x1=0.001 r0=0.001 x0=0.001 Length=0.001 units=km
New Line.5411842:B5411842-1 phases=1 Bus1=61869066.2 Bus2=61869065.2 switch=y r1=0.001 x1=0.001 r0=0.001 x0=0.001 Length=0.001 units=km
New Line.5058162:B5058162-1 phases=1 Bus1=61869569.1 Bus2=61869570.1 switch=y r1=0.001 x1=0.001 r0=0.001 x0=0.001 Length=0.001 units=km
New Line.5058162:B5058162-2 phases=1 Bus1=61869570.1 Bus2=61869578.1 switch=y r1=0.001 x1=0.001 r0=0.001 x0=0.001 Length=0.001 units=km
New Line.5058161:B5058161-2 phases=1 Bus1=61869938.3 Bus2=61869930.3 switch=y r1=0.001 x1=0.001 r0=0.001 x0=0.001 Length=0.001 units=km
New Line.5058156:B5058156-2 phases=3 Bus1=61870010.1.2.3 Bus2=61870002.1.2.3 switch=y r1=0.001 x1=0.001 r0=0.001 x0=0.001 Length=0.001 units=km
New Line.5375767:P5375767-A phases=3 Bus1=102518163.1.2.3 Bus2=102518147.1.2.3 switch=y r1=0.001 x1=0.001 r0=0.001 x0=0.001 Length=0.001 units=km
New Line.5058247:P5058247-1 phases=3 Bus1=102518295.1.2.3 Bus2=102518296.1.2.3 switch=y r1=0.001 x1=0.001 r0=0.001 x0=0.001 Length=0.001 units=km
New Line.5411843:B5411843-2 phases=1 Bus1=61869002.2 Bus2=61868994.2 switch=y r1=0.001 x1=0.001 r0=0.001 x0=0.001 Length=0.001 units=km
New Line.5058161:B5058161-1 phases=1 Bus1=61869930.3 Bus2=61869929.3 switch=y r1=0.001 x1=0.001 r0=0.001 x0=0.001 Length=0.001 units=km
New Line.5058156:B5058156-1 phases=3 Bus1=61870002.1.2.3 Bus2=61870001.1.2.3 switch=y r1=0.001 x1=0.001 r0=0.001 x0=0.001 Length=0.001 units=km
New Line.5375767:P5375767-B phases=3 Bus1=102518147.1.2.3 Bus2=102518146.1.2.3 switch=y r1=0.001 x1=0.001 r0=0.001 x0=0.001 Length=0.001 units=km
New Line.5375767:P5375767-T phases=3 Bus1=102518147.1.2.3 Bus2=102518155.1.2.3 switch=y r1=0.001 x1=0.001 r0=0.001 x0=0.001 Length=0.001 units=km
New Line.5355410:OS2085-1 phases=3 Bus1=59224693.1.2.3 Bus2=59224665.1.2.3 switch=y r1=0.001 x1=0.001 r0=0.001 x0=0.001 Length=0.001 units=km
New Line.5411843:B5411843-1 phases=1 Bus1=61868994.2 Bus2=61868993.2 switch=y r1=0.001 x1=0.001 r0=0.001 x0=0.001 Length=0.001 units=km
New Line.5058160:B5058160-1 phases=1 Bus1=61869281.1 Bus2=61869282.1 switch=y r1=0.001 x1=0.001 r0=0.001 x0=0.001 Length=0.001 units=km
New Line.5355408:B5355408-1 phases=2 Bus1=59224851.1.3 Bus2=59224852.1.3 switch=y r1=0.001 x1=0.001 r0=0.001 x0=0.001 Length=0.001 units=km
New Line.5058159:B5058159-1 phases=1 Bus1=61869857.3 Bus2=61869858.3 switch=y r1=0.001 x1=0.001 r0=0.001 x0=0.001 Length=0.001 units=km
New Line.5058155:B5058155-2 phases=1 Bus1=61870082.1 Bus2=61870074.1 switch=y r1=0.001 x1=0.001 r0=0.001 x0=0.001 Length=0.001 units=km
New Line.5399610:P5399610-A phases=3 Bus1=102518061.1.2.3 Bus2=102518045.1.2.3 switch=y r1=0.001 x1=0.001 r0=0.001 x0=0.001 Length=0.001 units=km
New Line.5355410:OS2085-2 phases=3 Bus1=59224666.1.2.3 Bus2=59224685.1.2.3 switch=y r1=0.001 x1=0.001 r0=0.001 x0=0.001 Length=0.001 units=km
New Line.5411844:B5411844-2 phases=1 Bus1=61868930.2 Bus2=61868922.2 switch=y r1=0.001 x1=0.001 r0=0.001 x0=0.001 Length=0.001 units=km
New Line.5058159:B5058159-2 phases=1 Bus1=61869858.3 Bus2=61869866.3 switch=y r1=0.001 x1=0.001 r0=0.001 x0=0.001 Length=0.001 units=km
New Line.5058155:B5058155-1 phases=1 Bus1=61870074.1 Bus2=61870073.1 switch=y r1=0.001 x1=0.001 r0=0.001 x0=0.001 Length=0.001 units=km
New Line.5399610:P5399610-B phases=3 Bus1=102518045.1.2.3 Bus2=102518044.1.2.3 switch=y r1=0.001 x1=0.001 r0=0.001 x0=0.001 Length=0.001 units=km
New Line.5399610:P5399610-T phases=3 Bus1=102518045.1.2.3 Bus2=102518053.1.2.3 switch=y r1=0.001 x1=0.001 r0=0.001 x0=0.001 Length=0.001 units=km
New Line.5333547:P5333547-2 phases=3 Bus1=59224041.1.2.3 Bus2=59224033.1.2.3 switch=y r1=0.001 x1=0.001 r0=0.001 x0=0.001 Length=0.001 units=km
New Line.5355410:OS2085-3 phases=3 Bus1=59224672.1.2.3 Bus2=59224701.1.2.3 switch=y r1=0.001 x1=0.001 r0=0.001 x0=0.001 Length=0.001 units=km
New Line.CAB_1194083E:1194083E phases=3 Bus1=211106639.1.2.3 Bus2=211106622.1.2.3 switch=y r1=0.001 x1=0.001 r0=0.001 x0=0.001 Length=0.001 units=km
New Line.CAB_3000943E:3000943E phases=3 Bus1=61867995.1.2.3 Bus2=61867977.1.2.3 switch=y r1=0.001 x1=0.001 r0=0.001 x0=0.001 Length=0.001 units=km
New Line.CAB_1194084E:1194084E phases=3 Bus1=61854882.1.2.3 Bus2=61854866.1.2.3 switch=y r1=0.001 x1=0.001 r0=0.001 x0=0.001 Length=0.001 units=km
New Line.CAB_1194090E:1194090E phases=3 Bus1=61854982.1.2.3 Bus2=61854966.1.2.3 switch=y r1=0.001 x1=0.001 r0=0.001 x0=0.001 Length=0.001 units=km
New Line.CAB_1075262E:1075262E phases=3 Bus1=61868024.1.2.3 Bus2=61868006.1.2.3 switch=y r1=0.001 x1=0.001 r0=0.001 x0=0.001 Length=0.001 units=km
New Line.CAB_1174521E:1174521E phases=3 Bus1=61870614.1.2.3 Bus2=61870598.1.2.3 switch=y r1=0.001 x1=0.001 r0=0.001 x0=0.001 Length=0.001 units=km
New Line.CAB_1075316E:1075316E phases=3 Bus1=59194041.1.2.3 Bus2=59194025.1.2.3 switch=y r1=0.001 x1=0.001 r0=0.001 x0=0.001 Length=0.001 units=km
New Line.CAB_1075377E:1075377E phases=3 Bus1=59194116.1.2.3 Bus2=59194100.1.2.3 switch=y r1=0.001 x1=0.001 r0=0.001 x0=0.001 Length=0.001 units=km
New Line.CAB_1194985E:1194985E phases=3 Bus1=59227775.1.2.3 Bus2=59227759.1.2.3 switch=y r1=0.001 x1=0.001 r0=0.001 x0=0.001 Length=0.001 units=km
New Line.CAB_1174525E:1174525E phases=3 Bus1=61886883.1.2.3 Bus2=243236507.1.2.3 switch=y r1=0.001 x1=0.001 r0=0.001 x0=0.001 Length=0.001 units=km
New Line.CAB_984864E:984864E phases=3 Bus1=61853863.1.2.3 Bus2=61853847.1.2.3 switch=y r1=0.001 x1=0.001 r0=0.001 x0=0.001 Length=0.001 units=km
New Line.CAB_1052430E:1052430E phases=3 Bus1=61853588.1.2.3 Bus2=61853572.1.2.3 switch=y r1=0.001 x1=0.001 r0=0.001 x0=0.001 Length=0.001 units=km
New Line.CAB_1194074E:1194074E phases=3 Bus1=61854907.1.2.3 Bus2=61854891.1.2.3 switch=y r1=0.001 x1=0.001 r0=0.001 x0=0.001 Length=0.001 units=km
New Line.CAB_1174523E:1174523E phases=3 Bus1=61870639.1.2.3 Bus2=61870623.1.2.3 switch=y r1=0.001 x1=0.001 r0=0.001 x0=0.001 Length=0.001 units=km
New Line.CAB_984872E:984872E phases=3 Bus1=61853438.1.2.3 Bus2=61853422.1.2.3 switch=y r1=0.001 x1=0.001 r0=0.001 x0=0.001 Length=0.001 units=km
New Line.CAB_984865E:984865E phases=3 Bus1=61854013.1.2.3 Bus2=61853997.1.2.3 switch=y r1=0.001 x1=0.001 r0=0.001 x0=0.001 Length=0.001 units=km
New Line.CAB_1075141E:1075141E phases=3 Bus1=59193966.1.2.3 Bus2=59193950.1.2.3 switch=y r1=0.001 x1=0.001 r0=0.001 x0=0.001 Length=0.001 units=km
New Line.5646596:GS2497-3 phases=3 Bus1=169365830.1.2.3 Bus2=169365862.1.2.3 switch=y r1=0.001 x1=0.001 r0=0.001 x0=0.001 Length=0.001 units=km enabled=false
New Line.CAB_1075317E:1075317E phases=3 Bus1=59194066.1.2.3 Bus2=59194050.1.2.3 switch=y r1=0.001 x1=0.001 r0=0.001 x0=0.001 Length=0.001 units=km
New Line.CAB_1075311E:1075311E phases=3 Bus1=59194141.1.2.3 Bus2=59194125.1.2.3 switch=y r1=0.001 x1=0.001 r0=0.001 x0=0.001 Length=0.001 units=km
New Line.CAB_1075138E:1075138E phases=3 Bus1=59196232.1.2.3 Bus2=59196216.1.2.3 switch=y r1=0.001 x1=0.001 r0=0.001 x0=0.001 Length=0.001 units=km
New Line.CAB_1194987E:1194987E phases=3 Bus1=59230097.1.2.3 Bus2=59230081.1.2.3 switch=y r1=0.001 x1=0.001 r0=0.001 x0=0.001 Length=0.001 units=km
New Line.CAB_1194078E:1194078E phases=3 Bus1=61854957.1.2.3 Bus2=61854941.1.2.3 switch=y r1=0.001 x1=0.001 r0=0.001 x0=0.001 Length=0.001 units=km
New Line.CAB_984867E:984867E phases=3 Bus1=61854038.1.2.3 Bus2=61854022.1.2.3 switch=y r1=0.001 x1=0.001 r0=0.001 x0=0.001 Length=0.001 units=km
New Line.CAB_984858E:984858E phases=3 Bus1=61854138.1.2.3 Bus2=61854122.1.2.3 switch=y r1=0.001 x1=0.001 r0=0.001 x0=0.001 Length=0.001 units=km
New Line.CAB_984874E:984874E phases=3 Bus1=61853463.1.2.3 Bus2=61853447.1.2.3 switch=y r1=0.001 x1=0.001 r0=0.001 x0=0.001 Length=0.001 units=km
New Line.CAB_1051934E:1051934E phases=3 Bus1=61854063.1.2.3 Bus2=61854047.1.2.3 switch=y r1=0.001 x1=0.001 r0=0.001 x0=0.001 Length=0.001 units=km
New Line.CAB_603307H:603307H phases=3 Bus1=61854163.1.2.3 Bus2=61854147.1.2.3 switch=y r1=0.001 x1=0.001 r0=0.001 x0=0.001 Length=0.001 units=km
New Line.CAB_1305384E:1305384E phases=3 Bus1=61854238.1.2.3 Bus2=61854222.1.2.3 switch=y r1=0.001 x1=0.001 r0=0.001 x0=0.001 Length=0.001 units=km
New Line.CAB_984861E:984861E phases=3 Bus1=61871155.1.2.3 Bus2=61871139.1.2.3 switch=y r1=0.001 x1=0.001 r0=0.001 x0=0.001 Length=0.001 units=km
New Line.CAB_984878E:984878E phases=3 Bus1=61853638.1.2.3 Bus2=61853622.1.2.3 switch=y r1=0.001 x1=0.001 r0=0.001 x0=0.001 Length=0.001 units=km
New Line.CAB_1051942E:1051942E phases=3 Bus1=61853888.1.2.3 Bus2=61853872.1.2.3 switch=y r1=0.001 x1=0.001 r0=0.001 x0=0.001 Length=0.001 units=km
New Line.CAB_1051936E:1051936E phases=3 Bus1=61854088.1.2.3 Bus2=61854072.1.2.3 switch=y r1=0.001 x1=0.001 r0=0.001 x0=0.001 Length=0.001 units=km
New Line.CAB_984856E:984856E phases=3 Bus1=61854188.1.2.3 Bus2=61854172.1.2.3 switch=y r1=0.001 x1=0.001 r0=0.001 x0=0.001 Length=0.001 units=km
New Line.CAB_4613038E:4613038E phases=3 Bus1=61871001.1.2.3 Bus2=61870985.1.2.3 switch=y r1=0.001 x1=0.001 r0=0.001 x0=0.001 Length=0.001 units=km
New Line.CAB_4766870E:4766870E phases=3 Bus1=59193641.1.2.3 Bus2=59193625.1.2.3 switch=y r1=0.001 x1=0.001 r0=0.001 x0=0.001 Length=0.001 units=km
New Line.CAB_1075344E:1075344E phases=3 Bus1=59193941.1.2.3 Bus2=59193925.1.2.3 switch=y r1=0.001 x1=0.001 r0=0.001 x0=0.001 Length=0.001 units=km
New Line.CAB_1075144E:1075144E phases=3 Bus1=59193991.1.2.3 Bus2=59193975.1.2.3 switch=y r1=0.001 x1=0.001 r0=0.001 x0=0.001 Length=0.001 units=km
New Line.CAB_1075318E:1075318E phases=3 Bus1=59194091.1.2.3 Bus2=59194075.1.2.3 switch=y r1=0.001 x1=0.001 r0=0.001 x0=0.001 Length=0.001 units=km
New Line.CAB_1075313E:1075313E phases=3 Bus1=59194166.1.2.3 Bus2=59194150.1.2.3 switch=y r1=0.001 x1=0.001 r0=0.001 x0=0.001 Length=0.001 units=km
New Line.CAB_1052435E:1052435E phases=3 Bus1=61853538.1.2.3 Bus2=61853522.1.2.3 switch=y r1=0.001 x1=0.001 r0=0.001 x0=0.001 Length=0.001 units=km
New Line.CAB_4745454E:4745454E phases=3 Bus1=61853613.1.2.3 Bus2=61853597.1.2.3 switch=y r1=0.001 x1=0.001 r0=0.001 x0=0.001 Length=0.001 units=km
New Line.CAB_984880E:984880E phases=3 Bus1=61853663.1.2.3 Bus2=61853647.1.2.3 switch=y r1=0.001 x1=0.001 r0=0.001 x0=0.001 Length=0.001 units=km
New Line.CAB_984883E:984883E phases=3 Bus1=61853688.1.2.3 Bus2=61853672.1.2.3 switch=y r1=0.001 x1=0.001 r0=0.001 x0=0.001 Length=0.001 units=km
New Line.CAB_1052219E:1052219E phases=3 Bus1=61853838.1.2.3 Bus2=61853822.1.2.3 switch=y r1=0.001 x1=0.001 r0=0.001 x0=0.001 Length=0.001 units=km
New Line.CAB_1305374E:1305374E phases=3 Bus1=61853913.1.2.3 Bus2=61853897.1.2.3 switch=y r1=0.001 x1=0.001 r0=0.001 x0=0.001 Length=0.001 units=km
New Line.CAB_1051938E:1051938E phases=3 Bus1=61854113.1.2.3 Bus2=61854097.1.2.3 switch=y r1=0.001 x1=0.001 r0=0.001 x0=0.001 Length=0.001 units=km
New Line.CAB_1305378E:1305378E phases=3 Bus1=61870539.1.2.3 Bus2=61870523.1.2.3 switch=y r1=0.001 x1=0.001 r0=0.001 x0=0.001 Length=0.001 units=km
New Line.CAB_4098193E:4098193E phases=3 Bus1=61871026.1.2.3 Bus2=61871010.1.2.3 switch=y r1=0.001 x1=0.001 r0=0.001 x0=0.001 Length=0.001 units=km
New Line.CAB_1052424E:1052424E phases=3 Bus1=61853488.1.2.3 Bus2=61853472.1.2.3 switch=y r1=0.001 x1=0.001 r0=0.001 x0=0.001 Length=0.001 units=km
New Line.CAB_984884E:984884E phases=3 Bus1=61853713.1.2.3 Bus2=61853697.1.2.3 switch=y r1=0.001 x1=0.001 r0=0.001 x0=0.001 Length=0.001 units=km
New Line.CAB_1305380E:1305380E phases=3 Bus1=61853938.1.2.3 Bus2=61853922.1.2.3 switch=y r1=0.001 x1=0.001 r0=0.001 x0=0.001 Length=0.001 units=km
New Line.CAB_1052251E:1052251E phases=3 Bus1=61854213.1.2.3 Bus2=61854197.1.2.3 switch=y r1=0.001 x1=0.001 r0=0.001 x0=0.001 Length=0.001 units=km
New Line.CAB_1052441E:1052441E phases=3 Bus1=99438977.1.2.3 Bus2=99438960.1.2.3 switch=y r1=0.001 x1=0.001 r0=0.001 x0=0.001 Length=0.001 units=km
New Line.CAB_4745481E:4745481E phases=3 Bus1=61854932.1.2.3 Bus2=61854916.1.2.3 switch=y r1=0.001 x1=0.001 r0=0.001 x0=0.001 Length=0.001 units=km
New Line.CAB_1075260E:1075260E phases=3 Bus1=61868053.1.2.3 Bus2=61868035.1.2.3 switch=y r1=0.001 x1=0.001 r0=0.001 x0=0.001 Length=0.001 units=km
...

! Loads
New Load.1194199E_0 Bus1=-99999959193526.2.0 phases=1 kV=0.069282 kW=0 kvar=0 model=1
New Load.1194199E_1 Bus1=-99999959193526.3.0 phases=1 kV=0.069282 kW=0 kvar=0 model=1
New Load.1075304E_0 Bus1=-99999959225912.2.0 phases=1 kV=0.069282 kW=0 kvar=0 model=1
...